[Format]      =  1
[Precision]   =  1e-008
[MinAngle]    =  30
[DoSmartMesh] =  1
[Depth]       =  1
[LengthUnits] =  millimeters
[ProblemType] =  axisymmetric
[Coordinates] =  cartesian
[Comment]     =  "WPT coil electrostatic analysis"
[PointProps]   = 0
[BdryProps]   = 1
  <BeginBdry>
    <BdryName> = "V=0"
    <BdryType> = 0
    <Vs> = 0
    <qs> = 0
    <c0> = 0
    <c1> = 0
  <EndBdry>
[BlockProps]  = 11
  <BeginBlock>
    <BlockName> = "Air"
    <ex> = 1
    <ey> = 1
    <qv> = 0
  <EndBlock>
  <BeginBlock>
    <BlockName> = "Copper"
    <ex> = 1
    <ey> = 1
    <qv> = 0
  <EndBlock>
  <BeginBlock>
    <BlockName> = "Ferrite"
    <ex> = 1
    <ey> = 1
    <qv> = 0
  <EndBlock>
  <BeginBlock>
    <BlockName> = "Enamel"
    <ex> = 4
    <ey> = 4
    <qv> = 0
  <EndBlock>
  <BeginBlock>
    <BlockName> = "e1"
    <ex> = 0.33861114976053774
    <ey> = 0.33861114976053774
    <qv> = 0
  <EndBlock>
  <BeginBlock>
    <BlockName> = "e2"
    <ex> = 9.1183081632902905
    <ey> = 9.1183081632902905
    <qv> = 0
  <EndBlock>
  <BeginBlock>
    <BlockName> = "e3"
    <ex> = 0.067488419813100609
    <ey> = 0.067488419813100609
    <qv> = 0
  <EndBlock>
  <BeginBlock>
    <BlockName> = "e4"
    <ex> = 34.531529889220678
    <ey> = 34.531529889220678
    <qv> = 0
  <EndBlock>
  <BeginBlock>
    <BlockName> = "e5"
    <ex> = 0.036240097325107842
    <ey> = 0.036240097325107842
    <qv> = 0
  <EndBlock>
  <BeginBlock>
    <BlockName> = "e6"
    <ex> = 185.49170522984019
    <ey> = 185.49170522984019
    <qv> = 0
  <EndBlock>
  <BeginBlock>
    <BlockName> = "e7"
    <ex> = 0.029097333010944249
    <ey> = 0.029097333010944249
    <qv> = 0
  <EndBlock>
[ConductorProps]  = 2
  <BeginConductor>
    <ConductorName> = "0V"
    <Vc> = 0
    <qc> = 0
    <ConductorType> = 1
  <EndConductor>
  <BeginConductor>
    <ConductorName> = "1V"
    <Vc> = 1
    <qc> = 0
    <ConductorType> = 1
  <EndConductor>
[NumPoints] = 61
0	-33.584609999999998	0	0	0
0	-33.121465714285705	0	0	0
0	-30.342599999999997	0	0	0
0	-3.6499999999999999	0	0	0
0	34.497599999999998	0	0	0
0	34.960744285714277	0	0	0
0	-30.80574428571428	0	0	0
0	35.423888571428563	0	0	0
0	-31.268888571428565	0	0	0
0	35.887032857142856	0	0	0
0	-31.732032857142858	0	0	0
0	36.350177142857142	0	0	0
0	-32.19517714285714	0	0	0
0	36.81332142857142	0	0	0
0	-32.658321428571419	0	0	0
0	37.276465714285706	0	0	0
0	37.739609999999999	0	0	0
0	-0.65000000000000002	0	0	0
25	-0.65000000000000002	0	0	0
25	-3.6499999999999999	0	0	0
11.550000000000001	7.0417190950972727e-017	0	0	0
12.699999999999999	-1.4083438190194545e-016	0	0	0
12.800000000000001	7.0417190950972727e-017	0	0	0
13.949999999999999	-1.4083438190194545e-016	0	0	0
14.050000000000001	7.0417190950972727e-017	0	0	0
15.199999999999999	-1.4083438190194545e-016	0	0	0
15.300000000000001	7.0417190950972727e-017	0	0	0
16.449999999999999	-1.4083438190194545e-016	0	0	0
16.550000000000001	7.0417190950972727e-017	0	0	0
17.699999999999999	-1.4083438190194545e-016	0	0	0
17.800000000000001	7.0417190950972727e-017	0	0	0
18.949999999999999	-1.4083438190194545e-016	0	0	0
19.050000000000001	7.0417190950972727e-017	0	0	0
20.199999999999999	-1.4083438190194545e-016	0	0	0
20.300000000000001	7.0417190950972727e-017	0	0	0
21.449999999999999	-1.4083438190194545e-016	0	0	0
0	-69.783519999999996	0	0	0
0	73.938519999999997	0	0	0
0	-63.250699999999995	0	0	0
0	67.405699999999996	0	0	0
0	-64.183959999999985	0	0	0
0	68.338959999999986	0	0	0
0	-65.117219999999989	0	0	0
0	69.27221999999999	0	0	0
0	-66.050479999999993	0	0	0
0	70.205479999999994	0	0	0
0	-66.983739999999997	0	0	0
0	71.138739999999999	0	0	0
0	-67.916999999999987	0	0	0
0	72.071999999999989	0	0	0
0	-68.850259999999992	0	0	0
0	73.005259999999993	0	0	0
14	0	0	0	0
12.747	0	0	0	0
11.503	0	0	0	0
15.25	0	0	0	0
16.5	0	0	0	0
17.75	0	0	0	0
19	0	0	0	0
20.25	0	0	0	0
21.501000000000001	0	0	0	0
[NumSegments] = 36
0	1	-1	0	0	0	0
2	3	-1	0	0	0	0
4	5	-1	0	0	0	0
6	2	-1	0	0	0	0
5	7	-1	0	0	0	0
8	6	-1	0	0	0	0
7	9	-1	0	0	0	0
10	8	-1	0	0	0	0
9	11	-1	0	0	0	0
12	10	-1	0	0	0	0
11	13	-1	0	0	0	0
14	12	-1	0	0	0	0
13	15	-1	0	0	0	0
1	14	-1	0	0	0	0
15	16	-1	0	0	0	0
17	4	-1	0	0	0	0
3	17	-1	0	0	0	0
17	18	-1	0	0	0	0
18	19	-1	0	0	0	0
19	3	-1	0	0	0	0
36	50	-1	0	0	0	0
16	39	-1	0	0	0	0
38	0	-1	0	0	0	0
39	41	-1	0	0	0	0
40	38	-1	0	0	0	0
41	43	-1	0	0	0	0
42	40	-1	0	0	0	0
43	45	-1	0	0	0	0
44	42	-1	0	0	0	0
45	47	-1	0	0	0	0
46	44	-1	0	0	0	0
47	49	-1	0	0	0	0
48	46	-1	0	0	0	0
49	51	-1	0	0	0	0
50	48	-1	0	0	0	0
51	37	-1	0	0	0	0
[NumArcSegments] = 40
20	21	180	1	0	0	0	0	1
21	20	180	1	0	0	0	0	1
22	23	180	1	0	0	0	0	1
23	22	180	1	0	0	0	0	1
24	25	180	1	0	0	0	0	1
25	24	180	1	0	0	0	0	1
26	27	180	1	0	0	0	0	1
27	26	180	1	0	0	0	0	1
28	29	180	1	0	0	0	0	1
29	28	180	1	0	0	0	0	1
30	31	180	1	0	0	0	0	1
31	30	180	1	0	0	0	0	1
32	33	180	1	0	0	0	2	1
33	32	180	1	0	0	0	2	1
34	35	180	1	0	0	0	1	1
35	34	180	1	0	0	0	1	1
38	39	180	1	0	0	0	0	1
40	41	180	1	0	0	0	0	1
42	43	180	1	0	0	0	0	1
44	45	180	1	0	0	0	0	1
46	47	180	1	0	0	0	0	1
48	49	180	1	0	0	0	0	1
50	51	180	1	0	0	0	0	1
36	37	180	1	1	0	0	0	1
54	53	180	1	0	0	0	0	1
53	54	180	1	0	0	0	0	1
53	52	180	1	0	0	0	0	1
52	53	180	1	0	0	0	0	1
52	55	180	1	0	0	0	0	1
55	52	180	1	0	0	0	0	1
55	56	180	1	0	0	0	0	1
56	55	180	1	0	0	0	0	1
56	57	180	1	0	0	0	0	1
57	56	180	1	0	0	0	0	1
58	57	180	1	0	0	0	0	1
57	58	180	1	0	0	0	0	1
58	59	180	1	0	0	0	0	1
59	58	180	1	0	0	0	0	1
59	60	180	1	0	0	0	0	1
60	59	180	1	0	0	0	0	1
[NumHoles] = 0
[NumBlockLabels] = 25
12.130000000000001	0.31	2	-1	0	0
13.34	-0.22	2	-1	0	0
14.630000000000001	0.35999999999999999	2	-1	0	0
15.91	-0.27000000000000002	2	-1	0	0
17.109999999999999	0.31	2	-1	0	0
18.359999999999999	-0.27000000000000002	2	-1	0	0
19.59	0.34000000000000002	2	-1	0	0
20.91	-0.28999999999999998	2	-1	0	0
8.7300000000000004	-2.3300000000000001	3	-1	0	0
64.530600790632874	14.913434571696413	5	-1	0	0
61.648716594571063	27.613234516366621	6	-1	0	0
56.258356452366819	39.668131985920859	7	-1	0	0
48.503713883846572	50.581213883846566	8	-1	0	0
38.62761493725661	59.887811113121764	9	-1	0	0
26.9643070767228	67.175095844617005	10	-1	0	0
13.928354535245036	72.100066815367597	11	-1	0	0
10.4	2	1	-1	0	0
12.144	0.59799999999999998	4	-1	0	0
13.377000000000001	0.59799999999999998	4	-1	0	0
14.625	0.59699999999999998	4	-1	0	0
15.879	0.59799999999999998	4	-1	0	0
17.128	0.59899999999999998	4	-1	0	0
18.378	0.59699999999999998	4	-1	0	0
19.623000000000001	0.59799999999999998	4	-1	0	0
20.879999999999999	0.59999999999999998	4	-1	0	0
